!
! generated by KUCRS rev. 2011.01.07m6 (c) 2002-2012 by A. Miyoshi
!  on Apr 20, 2012.
!
elements
 H HE C N O AR
end
species
 nC7H16 nC7H15a nC7H15b nC7H15c nC7H15d C6H13a C5H11a nC3H7 nC4H9
 C7H15OOa C7H15Oa C3H6 C7H15OOb C7H15Ob C6H12a n1C4H8 C7H15OOc
 C7H15Oc C5H10a C7H15OOd C7H15Od C6H13b C6H13c C6H13OOa C6H13Oa
 C5H11b C5H11OOa C5H11Oa nC3H7OO nC3H7O nC4H9OO nC4H9O C7H14a
 C7H14OOHa C7H14OOHb C7H14OOHc C7H14OOHd C7H15OOHa aC3H5 C7H14b
 C7H14OOHe C7H14OOHf C7H14OOHg C7H14OOHh C7H14OOHi C7H15OOHb C5H11CHOa
 aC6H11a nC4H7a C7H14c C7H14OOHj C7H14OOHk C7H14OOHl C7H14OOHm
 C7H14OOHn C7H14OOHo C7H15OOHc C4H9CHOa C2H5CHO aC5H9a C7H14OOHp
 C7H14OOHq C7H14OOHr C7H15OOHd nC3H7CHO C6H13OOb C6H13Ob C6H13OOc
 C6H13Oc C6H12OOHa C6H12OOHb C6H12OOHc C6H12OOHd C6H13OOHa C5H11OOb
 C5H11Ob C5H10OOHa C5H10OOHb C5H10OOHc C5H10OOHd C5H11OOHa C3H6OOHab
 C3H6OOHac nC3H7OOH C4H8OOHab C4H8OOHac C4H8OOHad nC4H9OOH aC7H13a
 C7H14cyOa HOOC7H14OOa C7H14cyOb HOOC7H14OOb C7H14cyOc HOOC7H14OOc
 C7H14cyOd HOOC7H14OOd aC7H13b C6H11Oa C7H14cyOe HOOC7H14OOe C7H14cyOf
 HOOC7H14OOf C7H14cyOg HOOC7H14OOg C7H14cyOh HOOC7H14OOh HOOC7H14OOi
 C5H11COa C5H9Oa C7H14cyOi HOOC7H14OOj C7H14cyOj HOOC7H14OOk HOOC7H14OOl
 HOOC7H14OOm HOOC7H14OOn HOOC7H14OOo C4H9COa C2H5CO CH3CHCHO HOOC7H14OOp
 HOOC7H14OOq HOOC7H14OOr nC3H7CO C3H6vCHO C6H12b C6H12c C6H12OOHe
 C6H12OOHf C6H12OOHg C6H12OOHh C6H12OOHi C6H13OOHb C6H12OOHj C6H12OOHk
 C6H12OOHl C6H12OOHm C6H12OOHn C6H13OOHc C6H12cyOa HOOC6H12OOa
 C6H12cyOb HOOC6H12OOb C6H12cyOc HOOC6H12OOc C6H12cyOd HOOC6H12OOd
 C5H10b C5H10OOHe C5H10OOHf C5H10OOHg C5H10OOHh C5H11OOHb C5H10cyOa
 HOOC5H10OOa C5H10cyOb HOOC5H10OOb C5H10cyOc HOOC5H10OOc C5H10cyOd
 HOOC5H10OOd C3H6cyOab HOOC3H6OOab C3H6cyOac HOOC3H6OOac C4H8cyOab
 HOOC4H8OOab C4H8cyOac HOOC4H8OOac C4H8cyOad HOOC4H8OOad C5H12CCOa
 CHOC6H12OOHa CHOC6H12OOHb C4H9vCOa CHOC6H12OOHc CH2CH2CHO COC4H9a
 CHOC6H12OOHd C4H10CCOa CH3CHCO COC6H13OOHa COC6H13OOHb CH3COCH2
 C2H5COCH2 COC6H13OOHc CH2CH2COCH3 COC6H13OOHd COC6H13OOHe C3H8CCOa
 C2H5CHCO COC6H13OOHf COC6H13OOHg COC6H13OOHh COC6H13OOHi COC6H13OOHj
 COC6H13OOHk COC6H13OOHl COC6H13OOHm COC6H13OOHn aC6H11b C6H12cyOe
 HOOC6H12OOe C6H12cyOf HOOC6H12OOf HOOC6H12OOg C6H12cyOg HOOC6H12OOh
 HOOC6H12OOi HOOC6H12OOj HOOC6H12OOk C6H12cyOh HOOC6H12OOl HOOC6H12OOm
 HOOC6H12OOn CHOC5H10OOHa CHOC5H10OOHb CHOC5H10OOHc CHOC5H10OOHd
 aC5H9b C5H10cyOe HOOC5H10OOe C5H10cyOf HOOC5H10OOf HOOC5H10OOg
 HOOC5H10OOh CHOC4H8OOHa CHOC4H8OOHb CHOC4H8OOHc CHOC4H8OOHd CHOC2H4OOHb
 CHOC2H4OOHc CHOC3H6OOHab CHOC3H6OOHac CHOC3H6OOHad C7H13O2a C7H13O2b
 C7H13O2c C7H13O2d C7H13O2e C7H13O2f C7H13O2g C7H13O2h C7H13O2i
 C7H13O2j C7H13O2k C7H13O2l C7H13O2m C7H13O2n C7H13O2o C7H13O2p
 C7H13O2q C7H13O2r COC5H11OOHa COC5H11OOHb COC5H11OOHc COC5H11OOHd
 COC5H11OOHe COC5H11OOHf COC5H11OOHg COC5H11OOHh COC5H11OOHi COC5H11OOHj
 C6H11O2a C6H11O2b C6H11O2c C6H11O2d COC4H9OOHa COC4H9OOHb COC4H9OOHc
 COC4H9OOHd C5H9O2a C5H9O2b C5H9O2c C5H9O2d C3H5O2a C3H5O2b C4H7O2a
 C4H7O2b C4H7O2c C3H5OCHOa C4H7OCHOa C3H6qCHOa C3H7COCHOa C4H9COCHOa
 COC4H9b C4H9COCHOb COC5H11a C5H11vCOa COC5H11b C6H11O2e C6H11O2f
 C6H11O2g C6H11O2h C6H11O2i C6H11O2j C6H11O2k C6H11O2l C6H11O2m
 C6H11O2n C5H9O2e C5H9O2f C5H9O2g C5H9O2h C3H5OCOa C3H4OvCHOa
 C4H7OCOa C4H6OvCHOa COC3H7COa COC4H9COa COC4H9COb OCCCH3CHOa
 C2H3OCHOa OCCC2H5CHOa OCCCH3COa C2H3OCOa OCCC2H5COa C2H3CO OCCC2H5a
 C2HO2a C2H4CCOa C2H3CHO
 He Ar H H2 O OH H2O O2 HO2 H2O2 N2 CH CH2 CH2(S) CH3 CH4 CO HCO
 CH2O CH2OH CH3O CH3OH CO2 HOCO HOCHO CH3OO CH3OOH C2H C2H2 C2H3
 C2H4 C2H5 C2H6 HCCO CH2CO CH3CO CH2CHO C2H4cyO CH3CHO C2H5O pC2H4OH
 sC2H4OH C2H5OH CH3CO2 C2H4OOH C2H5OO C2H5OOH CH3C(O)OO CH3C(O)OOH
 O2C2H4OH
end

reactions      cal/mole  moles
! Reaction data generated by combust (Apr 20, 2012)
 nC7H16+H=nC7H15a+H2                              3.040e+05   2.760    7200.0
                                           rev /  2.506e+01   3.431    9510.6 /
 nC7H16+OH=nC7H15a+H2O                            1.766e+07   1.800     855.0
                                           rev /  2.339e+04   2.308   18107.1 /
 nC7H16+O=nC7H15a+OH                              4.040e+04   2.780    3380.0
                                           rev /  1.804e+00   3.427    4286.0 /
 nC7H16+CH3=nC7H15a+CH4                           6.460e-08   5.970    5480.0
                                           rev /  7.223e-08   5.831    9916.3 /
 nC7H16+HO2=nC7H15a+H2O2                          1.680e+13   0.000   20440.0
                                           rev /  1.869e+11   0.159    6864.8 /
 nC7H16+O2=nC7H15a+HO2                            4.200e+13   0.000   50760.0
                                           rev /  2.093e+10   0.304   -1913.1 /
 nC7H16+CH3O=nC7H15a+CH3OH                        3.200e+11   0.000    7000.0
                                           rev /  4.923e+07   0.752    9664.5 /
 nC7H16+C2H5=nC7H15a+C2H6                         1.000e+11   0.000   13400.0
                                           rev /  4.206e+10   0.101   13315.1 /
 nC7H16+C2H3=nC7H15a+C2H4                         1.000e+12   0.000   18000.0
                                           rev /  7.645e+10   0.314   28065.6 /
 nC7H16+CH3OO=nC7H15a+CH3OOH                      1.680e+13   0.000   20440.0
                                           rev /  7.706e+12  -0.376    5232.8 /
 nC7H16+C2H5OO=nC7H15a+C2H5OOH                    1.210e+13   0.000   20430.0
                                           rev /  5.498e+12  -0.378    4816.0 /
 nC7H16+CH3C(O)OO=nC7H15a+CH3C(O)OOH              1.210e+13   0.000   20430.0
                                           rev /  7.575e+11   0.080   23127.8 /
 nC7H16+H=nC7H15b+H2                              1.148e+06   2.490    4124.0
                                           rev /  7.479e+00   3.480    8978.1 /
 nC7H16+OH=nC7H15b+H2O                            1.800e+06   2.000   -1133.0
                                           rev /  1.883e+02   2.828   18662.5 /
 nC7H16+O=nC7H15b+OH                              9.540e+04   2.710    2106.0
                                           rev /  3.366e-01   3.676    5555.4 /
 nC7H16+CH3=nC7H15b+CH4                           5.420e+04   2.260    7287.0
                                           rev /  4.788e+03   2.441   14266.8 /
 nC7H16+HO2=nC7H15b+H2O2                          1.120e+13   0.000   17690.0
                                           rev /  9.844e+09   0.478    6658.3 /
 nC7H16+O2=nC7H15b+HO2                            2.800e+13   0.000   48210.0
                                           rev /  1.102e+09   0.623   -1919.6 /
 nC7H16+CH3O=nC7H15b+CH3OH                        2.200e+11   0.000    5000.0
                                           rev /  2.675e+06   1.071   10208.0 /
 nC7H16+C2H5=nC7H15b+C2H6                         1.000e+11   0.000   10400.0
                                           rev /  3.324e+09   0.421   12858.6 /
 nC7H16+C2H3=nC7H15b+C2H4                         8.000e+11   0.000   16800.0
                                           rev /  4.833e+09   0.633   29409.1 /
 nC7H16+CH3OO=nC7H15b+CH3OOH                      1.120e+13   0.000   17690.0
                                           rev /  4.059e+11  -0.056    5026.2 /
 nC7H16+C2H5OO=nC7H15b+C2H5OOH                    8.060e+12   0.000   17700.0
                                           rev /  2.894e+11  -0.058    4629.4 /
 nC7H16+CH3C(O)OO=nC7H15b+CH3C(O)OOH              8.060e+12   0.000   17700.0
                                           rev /  3.987e+10   0.399   22941.3 /
 nC7H16+H=nC7H15c+H2                              1.148e+06   2.490    4124.0
                                           rev /  7.479e+00   3.480    8978.1 /
 nC7H16+OH=nC7H15c+H2O                            1.800e+06   2.000   -1133.0
                                           rev /  1.883e+02   2.828   18662.5 /
 nC7H16+O=nC7H15c+OH                              9.540e+04   2.710    2106.0
                                           rev /  3.366e-01   3.676    5555.4 /
 nC7H16+CH3=nC7H15c+CH4                           5.420e+04   2.260    7287.0
                                           rev /  4.788e+03   2.441   14266.8 /
 nC7H16+HO2=nC7H15c+H2O2                          1.120e+13   0.000   17690.0
                                           rev /  9.844e+09   0.478    6658.3 /
 nC7H16+O2=nC7H15c+HO2                            2.800e+13   0.000   48210.0
                                           rev /  1.102e+09   0.623   -1919.6 /
 nC7H16+CH3O=nC7H15c+CH3OH                        2.200e+11   0.000    5000.0
                                           rev /  2.675e+06   1.071   10208.0 /
 nC7H16+C2H5=nC7H15c+C2H6                         1.000e+11   0.000   10400.0
                                           rev /  3.324e+09   0.421   12858.6 /
 nC7H16+C2H3=nC7H15c+C2H4                         8.000e+11   0.000   16800.0
                                           rev /  4.833e+09   0.633   29409.1 /
 nC7H16+CH3OO=nC7H15c+CH3OOH                      1.120e+13   0.000   17690.0
                                           rev /  4.059e+11  -0.056    5026.2 /
 nC7H16+C2H5OO=nC7H15c+C2H5OOH                    8.060e+12   0.000   17700.0
                                           rev /  2.894e+11  -0.058    4629.4 /
 nC7H16+CH3C(O)OO=nC7H15c+CH3C(O)OOH              8.060e+12   0.000   17700.0
                                           rev /  3.987e+10   0.399   22941.3 /
 nC7H16+H=nC7H15d+H2                              5.740e+05   2.490    4124.0
                                           rev /  7.486e+00   3.480    8978.1 /
 nC7H16+OH=nC7H15d+H2O                            9.000e+05   2.000   -1133.0
                                           rev /  1.885e+02   2.828   18662.5 /
 nC7H16+O=nC7H15d+OH                              4.770e+04   2.710    2106.0
                                           rev /  3.369e-01   3.676    5555.4 /
 nC7H16+CH3=nC7H15d+CH4                           2.710e+04   2.260    7287.0
                                           rev /  4.793e+03   2.441   14266.8 /
 nC7H16+HO2=nC7H15d+H2O2                          5.600e+12   0.000   17690.0
                                           rev /  9.853e+09   0.478    6658.3 /
 nC7H16+O2=nC7H15d+HO2                            1.400e+13   0.000   48210.0
                                           rev /  1.103e+09   0.623   -1919.6 /
 nC7H16+CH3O=nC7H15d+CH3OH                        1.100e+11   0.000    5000.0
                                           rev /  2.677e+06   1.071   10208.0 /
 nC7H16+C2H5=nC7H15d+C2H6                         5.000e+10   0.000   10400.0
                                           rev /  3.326e+09   0.421   12858.6 /
 nC7H16+C2H3=nC7H15d+C2H4                         4.000e+11   0.000   16800.0
                                           rev /  4.837e+09   0.633   29409.1 /
 nC7H16+CH3OO=nC7H15d+CH3OOH                      5.600e+12   0.000   17690.0
                                           rev /  4.063e+11  -0.056    5026.2 /
 nC7H16+C2H5OO=nC7H15d+C2H5OOH                    4.030e+12   0.000   17700.0
                                           rev /  2.896e+11  -0.058    4629.4 /
 nC7H16+CH3C(O)OO=nC7H15d+CH3C(O)OOH              4.030e+12   0.000   17700.0
                                           rev /  3.991e+10   0.399   22941.3 /
 nC7H16=CH3+C6H13a                                4.674e+23  -1.932   90236.7
                                           rev /  2.000e+13   0.000       0.0 /
 nC7H16=C2H5+C5H11a                               1.014e+25  -2.254   88858.0
                                           rev /  1.600e+13   0.000       0.0 /
 nC7H16=nC3H7+nC4H9                               1.074e+25  -2.217   88474.6
                                           rev /  1.600e+13   0.000       0.0 /
 nC7H15a=C2H4+C5H11a                              2.915e+19  -2.039   30917.0
                                           rev /  8.500e+10   0.000    7800.0 /
 nC7H15a=nC7H15d                                  2.540e+09   0.350   19760.0
                                           rev /  4.018e+08   0.669   22303.5 /
 nC7H15a=nC7H15c                                  4.280e+11  -1.050   11760.0
                                           rev /  3.382e+10  -0.731   14303.5 /
 nC7H15a+O2(+M)=C7H15OOa(+M)                      6.890e+16  -1.627     200.0
                                           low /  8.861e+49 -11.994   -4973.2 /
                      troe / 0.0000 50.0 50000.0  9.000e+02 /
 nC7H15a+HO2=>C7H15Oa+OH                          7.000e+12   0.000   -1000.0
 nC7H15a+CH3OO=>C7H15Oa+CH3O                      7.000e+12   0.000   -1000.0
 nC7H15b=C3H6+nC4H9                               1.029e+19  -1.804   30540.6
                                           rev /  8.500e+10   0.000    7800.0 /
 nC7H15b=nC7H15c                                  3.220e+09   0.130   20700.0
                                           rev /  3.220e+09   0.130   20700.0 /
 nC7H15b+O2(+M)=C7H15OOb(+M)                      3.480e+14  -0.816    -530.0
                                           low /  8.861e+49 -11.994   -4973.2 /
                      troe / 0.0000 50.0 50000.0  9.000e+02 /
 nC7H15b+HO2=>C7H15Ob+OH                          7.000e+12   0.000   -1000.0
 nC7H15b+CH3OO=>C7H15Ob+CH3O                      7.000e+12   0.000   -1000.0
 nC7H15c=C6H12a+CH3                               2.785e+17  -1.461   32405.7
                                           rev /  8.500e+10   0.000    7800.0 /
 nC7H15c=n1C4H8+nC3H7                             7.980e+18  -1.746   30640.3
                                           rev /  8.500e+10   0.000    7800.0 /
 nC7H15c+O2(+M)=C7H15OOc(+M)                      3.480e+14  -0.816    -530.0
                                           low /  8.861e+49 -11.994   -4973.2 /
                      troe / 0.0000 50.0 50000.0  9.000e+02 /
 nC7H15c+HO2=>C7H15Oc+OH                          7.000e+12   0.000   -1000.0
 nC7H15c+CH3OO=>C7H15Oc+CH3O                      7.000e+12   0.000   -1000.0
 nC7H15d=C5H10a+C2H5                              3.019e+19  -1.783   31024.4
                                           rev /  1.700e+11   0.000    7800.0 /
 nC7H15d+O2(+M)=C7H15OOd(+M)                      3.480e+14  -0.816    -530.0
                                           low /  8.861e+49 -11.994   -4973.2 /
                      troe / 0.0000 50.0 50000.0  9.000e+02 /
 nC7H15d+HO2=>C7H15Od+OH                          7.000e+12   0.000   -1000.0
 nC7H15d+CH3OO=>C7H15Od+CH3O                      7.000e+12   0.000   -1000.0
 C6H13a=C2H4+nC4H9                                2.917e+19  -2.039   30919.7
                                           rev /  8.500e+10   0.000    7800.0 /
 C6H13a=C6H13b                                    2.540e+09   0.350   19760.0
                                           rev /  2.017e+08   0.669   22301.6 /
 C6H13a=C6H13c                                    4.280e+11  -1.050   11760.0
                                           rev /  3.398e+10  -0.731   14301.6 /
 C6H13a+O2(+M)=C6H13OOa(+M)                       6.890e+16  -1.627     200.0
                                           low /  1.682e+48 -11.296   -4264.4 /
                      troe / 0.0000 50.0 50000.0  1.000e+03 /
 C6H13a+HO2=>C6H13Oa+OH                           7.000e+12   0.000   -1000.0
 C6H13a+CH3OO=>C6H13Oa+CH3O                       7.000e+12   0.000   -1000.0
 C5H11a=C2H4+nC3H7                                2.961e+19  -2.041   30921.8
                                           rev /  8.500e+10   0.000    7800.0 /
 C5H11a=C5H11b                                    2.540e+09   0.350   19760.0
                                           rev /  2.027e+08   0.668   22305.1 /
 C5H11a+O2(+M)=C5H11OOa(+M)                       6.890e+16  -1.627     200.0
                                           low /  1.445e+46 -10.458   -3414.0 /
                      troe / 0.0000 50.0 50000.0  1.200e+03 /
 C5H11a+HO2=>C5H11Oa+OH                           7.000e+12   0.000   -1000.0
 C5H11a+CH3OO=>C5H11Oa+CH3O                       7.000e+12   0.000   -1000.0
 nC3H7=C2H4+CH3                                   1.016e+18  -1.755   32681.9
                                           rev /  8.500e+10   0.000    7800.0 /
 nC3H7+O2(+M)=nC3H7OO(+M)                         6.890e+16  -1.627     200.0
                                           low /  3.011e+40  -8.154   -1075.3 /
                      troe / 0.1700 50.0 50000.0  4.000e+03 /
 nC3H7+HO2=>nC3H7O+OH                             7.000e+12   0.000   -1000.0
 nC3H7+CH3OO=>nC3H7O+CH3O                         7.000e+12   0.000   -1000.0
 nC4H9=C2H4+C2H5                                  2.796e+19  -2.079   31305.3
                                           rev /  8.500e+10   0.000    7800.0 /
 nC4H9+O2(+M)=nC4H9OO(+M)                         6.890e+16  -1.627     200.0
                                           low /  4.315e+43  -9.434   -2374.6 /
                      troe / 0.1500 50.0 50000.0  3.000e+03 /
 nC4H9+HO2=>nC4H9O+OH                             7.000e+12   0.000   -1000.0
 nC4H9+CH3OO=>nC4H9O+CH3O                         7.000e+12   0.000   -1000.0
 C7H15OOa=>C7H14a+HO2                             5.730e+12   0.000   31650.0
 C7H15OOa=C7H14OOHa                               1.020e+12   0.000   30060.0
                                           rev /  9.104e+10   0.006   19624.8 /
 C7H15OOa=C7H14OOHb                               2.240e+11   0.000   19670.0
                                           rev /  1.999e+10   0.006    9234.8 /
 C7H15OOa=C7H14OOHc                               3.390e+10   0.000   18320.0
                                           rev /  3.026e+09   0.006    7884.8 /
 C7H15OOa=C7H14OOHd                               1.190e+10   0.000   19280.0
                                           rev /  1.062e+09   0.006    8844.8 /
 nC7H16+C7H15OOa=nC7H15a+C7H15OOHa                1.210e+13   0.000   20430.0
                                           rev /  1.042e+13  -0.370    7512.9 /
 nC7H16+C7H15OOa=nC7H15b+C7H15OOHa                8.060e+12   0.000   17700.0
                                           rev /  5.485e+11  -0.050    7326.4 /
 nC7H16+C7H15OOa=nC7H15c+C7H15OOHa                8.060e+12   0.000   17700.0
                                           rev /  5.485e+11  -0.050    7326.4 /
 nC7H16+C7H15OOa=nC7H15d+C7H15OOHa                4.030e+12   0.000   17700.0
                                           rev /  5.490e+11  -0.050    7326.4 /
 HO2+C7H15OOa=O2+C7H15OOHa                        1.750e+10   0.000   -3275.0
                                           rev /  3.025e+13  -0.674   36481.0 /
 H2O2+C7H15OOa=HO2+C7H15OOHa                      2.400e+12   0.000   10000.0
                                           rev /  1.858e+14  -0.529   10658.1 /
 C7H15OOa+nC7H15a=>C7H15Oa+C7H15Oa                7.000e+12   0.000   -1000.0
 C7H15OOa+nC7H15b=>C7H15Oa+C7H15Ob                7.000e+12   0.000   -1000.0
 C7H15OOa+nC7H15c=>C7H15Oa+C7H15Oc                7.000e+12   0.000   -1000.0
 C7H15OOa+nC7H15d=>C7H15Oa+C7H15Od                7.000e+12   0.000   -1000.0
 C7H15OOa+CH3=>C7H15Oa+CH3O                       7.000e+12   0.000   -1000.0
 C7H15OOa+C7H15OOa=>C7H15Oa+C7H15Oa+O2            1.400e+16  -1.610    1860.0
 C7H15OOa+C7H15OOb=>C7H15Oa+C7H15Ob+O2            1.400e+16  -1.610    1860.0
 C7H15OOa+C7H15OOc=>C7H15Oa+C7H15Oc+O2            1.400e+16  -1.610    1860.0
 C7H15OOa+C7H15OOd=>C7H15Oa+C7H15Od+O2            1.400e+16  -1.610    1860.0
 C7H15OOa+CH3OO=>C7H15Oa+CH3O+O2                  1.400e+16  -1.610    1860.0
 C7H15Oa=CH2O+C6H13a                              1.000e+11   0.000   11900.0
                                           rev /  5.390e+00   2.334   -1008.2 /
 C3H6+H=aC3H5+H2                                  5.000e+12   0.000    1100.0
                                           rev /  3.795e+11   0.150   16638.4 /
 C3H6+OH=aC3H5+H2O                                1.110e+13   0.000    2319.0
                                           rev /  1.353e+13  -0.013   32798.8 /
 C3H6+CH3=aC3H5+CH4                               1.400e+11   0.000    8800.0
                                           rev /  1.441e+14  -0.660   26464.1 /
 C3H6+O=>C2H5+HCO                                 7.300e+12   0.000    1710.0
 C7H15OOb=>C7H14b+HO2                             7.350e+12   0.000   31500.0
 C7H15OOb=>C7H14a+HO2                             6.960e+12   0.000   31690.0
 C7H15OOb=C7H14OOHe                               8.500e+11   0.000   30420.0
                                           rev /  8.461e+10  -0.006   20013.2 /
 C7H15OOb=C7H14OOHf                               5.260e+11   0.000   19820.0
                                           rev /  5.236e+10  -0.006    9413.2 /
 C7H15OOb=C7H14OOHg                               7.930e+10   0.000   19100.0
                                           rev /  7.893e+09  -0.006    8693.2 /
 C7H15OOb=C7H14OOHh                               2.770e+10   0.000   20660.0
                                           rev /  2.757e+09  -0.006   10253.2 /
 C7H15OOb=C7H14OOHi                               1.540e+12   0.000   33230.0
                                           rev /  3.010e+12  -0.388   20327.1 /
 nC7H16+C7H15OOb=nC7H15a+C7H15OOHb                1.210e+13   0.000   20430.0
                                           rev /  1.267e+13  -0.397    7536.5 /
 nC7H16+C7H15OOb=nC7H15b+C7H15OOHb                8.060e+12   0.000   17700.0
                                           rev /  6.669e+11  -0.078    7349.9 /
 nC7H16+C7H15OOb=nC7H15c+C7H15OOHb                8.060e+12   0.000   17700.0
                                           rev /  6.669e+11  -0.078    7349.9 /
 nC7H16+C7H15OOb=nC7H15d+C7H15OOHb                4.030e+12   0.000   17700.0
                                           rev /  6.675e+11  -0.078    7349.9 /
 HO2+C7H15OOb=O2+C7H15OOHb                        1.750e+10   0.000   -3275.0
                                           rev /  3.678e+13  -0.701   36504.6 /
 H2O2+C7H15OOb=HO2+C7H15OOHb                      2.400e+12   0.000   10000.0
                                           rev /  2.259e+14  -0.556   10681.7 /
 C7H15OOb+nC7H15a=>C7H15Ob+C7H15Oa                7.000e+12   0.000   -1000.0
 C7H15OOb+nC7H15b=>C7H15Ob+C7H15Ob                7.000e+12   0.000   -1000.0
 C7H15OOb+nC7H15c=>C7H15Ob+C7H15Oc                7.000e+12   0.000   -1000.0
 C7H15OOb+nC7H15d=>C7H15Ob+C7H15Od                7.000e+12   0.000   -1000.0
 C7H15OOb+CH3=>C7H15Ob+CH3O                       7.000e+12   0.000   -1000.0
 C7H15OOb+C7H15OOb=>C7H15Ob+C7H15Ob+O2            1.400e+16  -1.610    1860.0
 C7H15OOb+C7H15OOc=>C7H15Ob+C7H15Oc+O2            1.400e+16  -1.610    1860.0
 C7H15OOb+C7H15OOd=>C7H15Ob+C7H15Od+O2            1.400e+16  -1.610    1860.0
 C7H15OOb+CH3OO=>C7H15Ob+CH3O+O2                  1.400e+16  -1.610    1860.0
 C7H15Ob=C5H11CHOa+CH3                            1.000e+11   0.000   11900.0
                                           rev /  6.458e+00   2.273    1514.8 /
 C7H15Ob=CH3CHO+C5H11a                            1.000e+11   0.000   11900.0
                                           rev /  1.834e-01   2.623    3245.3 /
 C6H12a+H=aC6H11a+H2                              2.500e+12   0.000     900.0
                                           rev /  9.787e+10   0.434   19020.3 /
 C6H12a+OH=aC6H11a+H2O                            5.500e+12   0.000    2100.0
                                           rev /  3.458e+12   0.272   35161.7 /
 C6H12a+CH3=aC6H11a+CH4                           7.000e+10   0.000    8500.0
                                           rev /  3.716e+13  -0.375   28746.0 /
 C6H12a+O=>C5H11a+HCO                             7.300e+12   0.000    1710.0
 n1C4H8+H=nC4H7a+H2                               2.500e+12   0.000     900.0
                                           rev /  9.122e+10   0.445   19012.5 /
 n1C4H8+OH=nC4H7a+H2O                             5.500e+12   0.000    2100.0
                                           rev /  3.223e+12   0.282   35154.0 /
 n1C4H8+CH3=nC4H7a+CH4                            7.000e+10   0.000    8500.0
                                           rev /  3.463e+13  -0.365   28738.2 /
 n1C4H8+O=>nC3H7+HCO                              7.300e+12   0.000    1710.0
 C7H15OOc=>C7H14c+HO2                             7.350e+12   0.000   31500.0
 C7H15OOc=>C7H14b+HO2                             7.350e+12   0.000   31500.0
 C7H15OOc=C7H14OOHj                               8.500e+11   0.000   30420.0
                                           rev /  8.461e+10  -0.006   20013.2 /
 C7H15OOc=C7H14OOHk                               5.260e+11   0.000   19820.0
                                           rev /  5.236e+10  -0.006    9413.2 /
 C7H15OOc=C7H14OOHl                               7.930e+10   0.000   19100.0
                                           rev /  7.893e+09  -0.006    8693.2 /
 C7H15OOc=C7H14OOHm                               4.530e+10   0.000   23900.0
                                           rev /  8.854e+10  -0.388   10997.1 /
 C7H15OOc=C7H14OOHn                               8.500e+11   0.000   30420.0
                                           rev /  8.461e+10  -0.006   20013.2 /
 C7H15OOc=C7H14OOHo                               3.920e+11   0.000   22570.0
                                           rev /  7.662e+11  -0.388    9667.1 /
 nC7H16+C7H15OOc=nC7H15a+C7H15OOHc                1.210e+13   0.000   20430.0
                                           rev /  1.267e+13  -0.397    7536.5 /
 nC7H16+C7H15OOc=nC7H15b+C7H15OOHc                8.060e+12   0.000   17700.0
                                           rev /  6.669e+11  -0.078    7349.9 /
 nC7H16+C7H15OOc=nC7H15c+C7H15OOHc                8.060e+12   0.000   17700.0
                                           rev /  6.669e+11  -0.078    7349.9 /
 nC7H16+C7H15OOc=nC7H15d+C7H15OOHc                4.030e+12   0.000   17700.0
                                           rev /  6.675e+11  -0.078    7349.9 /
 HO2+C7H15OOc=O2+C7H15OOHc                        1.750e+10   0.000   -3275.0
                                           rev /  3.678e+13  -0.701   36504.6 /
 H2O2+C7H15OOc=HO2+C7H15OOHc                      2.400e+12   0.000   10000.0
                                           rev /  2.259e+14  -0.556   10681.7 /
 C7H15OOc+nC7H15a=>C7H15Oc+C7H15Oa                7.000e+12   0.000   -1000.0
 C7H15OOc+nC7H15b=>C7H15Oc+C7H15Ob                7.000e+12   0.000   -1000.0
 C7H15OOc+nC7H15c=>C7H15Oc+C7H15Oc                7.000e+12   0.000   -1000.0
 C7H15OOc+nC7H15d=>C7H15Oc+C7H15Od                7.000e+12   0.000   -1000.0
 C7H15OOc+CH3=>C7H15Oc+CH3O                       7.000e+12   0.000   -1000.0
 C7H15OOc+C7H15OOc=>C7H15Oc+C7H15Oc+O2            1.400e+16  -1.610    1860.0
 C7H15OOc+C7H15OOd=>C7H15Oc+C7H15Od+O2            1.400e+16  -1.610    1860.0
 C7H15OOc+CH3OO=>C7H15Oc+CH3O+O2                  1.400e+16  -1.610    1860.0
 C7H15Oc=C4H9CHOa+C2H5                            1.000e+11   0.000   11900.0
                                           rev /  1.938e-01   2.623    2862.3 /
 C7H15Oc=C2H5CHO+nC4H9                            1.000e+11   0.000   11900.0
                                           rev /  1.450e-01   2.616    3211.0 /
 C5H10a+H=aC5H9a+H2                               2.500e+12   0.000     900.0
                                           rev /  9.518e+10   0.438   19014.4 /
 C5H10a+OH=aC5H9a+H2O                             5.500e+12   0.000    2100.0
                                           rev /  3.363e+12   0.276   35155.8 /
 C5H10a+CH3=aC5H9a+CH4                            7.000e+10   0.000    8500.0
                                           rev /  3.614e+13  -0.371   28740.1 /
 C5H10a+O=>nC4H9+HCO                              7.300e+12   0.000    1710.0
 C7H15OOd=>C7H14c+HO2                             1.470e+13   0.000   31500.0
 C7H15OOd=C7H14OOHp                               1.854e+11   0.000   22270.0
                                           rev /  3.624e+11  -0.388    9367.1 /
 C7H15OOd=C7H14OOHq                               1.052e+12   0.000   19820.0
                                           rev /  1.047e+11  -0.006    9413.2 /
 C7H15OOd=C7H14OOHr                               1.700e+12   0.000   30420.0
                                           rev /  1.692e+11  -0.006   20013.2 /
 nC7H16+C7H15OOd=nC7H15a+C7H15OOHd                1.210e+13   0.000   20430.0
                                           rev /  1.267e+13  -0.397    7536.5 /
 nC7H16+C7H15OOd=nC7H15b+C7H15OOHd                8.060e+12   0.000   17700.0
                                           rev /  6.669e+11  -0.078    7349.9 /
 nC7H16+C7H15OOd=nC7H15c+C7H15OOHd                8.060e+12   0.000   17700.0
                                           rev /  6.669e+11  -0.078    7349.9 /
 nC7H16+C7H15OOd=nC7H15d+C7H15OOHd                4.030e+12   0.000   17700.0
                                           rev /  6.675e+11  -0.078    7349.9 /
 HO2+C7H15OOd=O2+C7H15OOHd                        1.750e+10   0.000   -3275.0
                                           rev /  3.678e+13  -0.701   36504.6 /
 H2O2+C7H15OOd=HO2+C7H15OOHd                      2.400e+12   0.000   10000.0
                                           rev /  2.259e+14  -0.556   10681.7 /
 C7H15OOd+nC7H15a=>C7H15Od+C7H15Oa                7.000e+12   0.000   -1000.0
 C7H15OOd+nC7H15b=>C7H15Od+C7H15Ob                7.000e+12   0.000   -1000.0